Circuit: * C:\Users\akmg1\OneDrive\Desktop\elec2project2\project2.asc

Direct Newton iteration failed to find .op point.  (Use ".option noopiter" to skip.)
Starting Gmin stepping
Gmin = 10
Gmin = 1.07374
Gmin = 0.115292
Gmin = 0.0123794
Gmin = 0.00132923
Gmin = 0.000142725
Gmin = 1.5325e-005
Gmin = 1.6455e-006
Gmin = 1.76685e-007
Gmin = 1.89714e-008
Gmin = 2.03704e-009
Gmin = 2.18725e-010
Gmin = 2.34854e-011
Gmin = 2.52173e-012
Gmin = 2.70769e-013
Gmin = 0
Gmin stepping succeeded in finding the operating point.


Date: Mon Jun 26 00:30:36 2023
Total elapsed time: 0.185 seconds.

tnom = 27
temp = 27
method = modified trap
totiter = 3609
traniter = 3059
tranpoints = 1467
accept = 1420
rejected = 47
matrix size = 39
fillins = 31
solver = Normal
Matrix Compiler1: 4.52 KB object code size  1.0/0.5/[0.3]
Matrix Compiler2: off  [0.3]/0.5/0.4

